15
optimized structure
 H  -1.3799395662159364 2.274113886259688 -0.017150886559722873
 O  -0.3977376147867901 2.355106902834843 -0.01447825661377086
 O  -2.263537946625275 0.6834128743505122 -0.009749600145792894
 C  0.009438992474025297 1.0779092387679503 -0.0049023864200343475
 C  -1.1392226332025381 0.143651277077522 -0.0026043387692492328
 C  1.35765301966974 0.8214174735026364 0.0011413987810850428
 C  -0.9960287702566776 -1.2925804635065772 0.007139989832553424
 C  2.030507027493337 -0.4281824867155419 0.01140343567563125
 C  0.13355544212914802 -2.0693034033498368 0.01583322318713751
 H  1.981832497405242 1.7086321972467235 -0.0025592852091664417
 H  -1.9540032542881487 -1.8012853771091004 0.007309313972683386
 H  3.1128754163158763 -0.3583805946475921 0.014474282117270034
 H  -0.04898512241738364 -3.1393485828535237 0.022152030452025503
 C  1.507231252377274 -1.6979290418800372 0.017903686744043402
 H  2.2171182581710216 -2.5164548611255473 0.025501376434920276
