15
optimized structure
 H  -1.6232898651199297 1.8638785525609063 -0.01616876596328586
 O  -0.4762159424709524 2.2983415589877865 -0.016223147977563843
 O  -2.208459533669867 0.7858831754764353 -0.009914413906248499
 C  0.020036916290334685 1.1086608769989774 -0.006229802480797579
 C  -1.0965313778753627 0.1337615696183633 -0.002163323334242758
 C  1.3944625510924404 0.8425514004721646 -0.0005749573175572105
 C  -1.0181671027698436 -1.2639663923094717 0.0082117046600838
 C  2.023442941479214 -0.4013651680021491 0.010171973159429798
 C  0.12960645136080545 -2.0549137168506286 0.017069219511746354
 H  2.025977713289506 1.7238093258116671 -0.005273387722252301
 H  -1.9765452306694282 -1.7708778028019514 0.009303576508472354
 H  3.1079928833471846 -0.36027858461115664 0.01280862112683815
 H  -0.05734083086946806 -3.1239981544240405 0.024336589105158873
 C  1.4782693149047303 -1.6882457058125775 0.018053388188095095
 H  2.1908332301830598 -2.5043241432025827 0.0259157150811124
