12

C	-2.753558	0.067163	0.000179
O	-2.092027	1.107948	6E-06
O	-2.272562	-1.167856	1.1E-05
H	-3.854765	0.073713	0.000817
H	-1.273148	-1.128812	-0.000505
C	1.07663	        -0.01685	-0.000118
O	0.412973	-1.060897	-0.000181
O	0.5772	        1.213726	-0.00035
H	-0.424096	1.156416	-0.000571
C	2.533003	-0.037293	0.000159
C	3.762547	-0.12366	0.000407
H	4.835603	-0.18085	0.000618

