12
optimized structure
 C  -2.582647359314528 0.0628708525771349 -1.295027636744054e-05
 O  -1.9869870300064025 1.1778287314433993 -0.00015767536114181426
 O  -2.04368780603078 -1.0805734727704563 0.0001543185301765995
 H  -3.6749019630708224 0.09029363740808184 -3.4652240001304e-05
 H  -0.8582289200975741 -1.0732926198958819 0.00017273964256169272
 C  0.9648149192768798 -0.026193706184609113 5.7534222909843106e-05
 O  0.36173232544912814 -1.1398183023837603 0.00020195287944552084
 O  0.41837557177593754 1.116291488095472 -0.00010972432873042408
 H  -0.8033873116329917 1.1110690446274825 -0.0001290256947938505
 C  2.418147589164464 -0.06268195046347408 8.64105536659798e-05
 C  3.628519460199632 -0.09307032444094968 0.000110459519862
 H  4.693140524287054 -0.11979937801243595 0.0001316125524154533
