12
optimized structure
 C  -2.737811487241432 0.06664029250634468 -6.8527036595577e-06
 O  -2.0765538105878996 1.094528915016698 -0.00014364318138828318
 O  -2.264575439207972 -1.161144371680068 0.00017270844544750206
 H  -3.8315083313002103 0.08070275407437916 -2.283957421403756e-05
 H  -1.2701517500451387 -1.1319041011110094 0.00018130610776297197
 C  1.072258139494942 -0.020524473606200393 5.42525433601269e-05
 O  0.4085470771288139 -1.0504050229174022 0.00019128475535175378
 O  0.5829025957781103 1.2034693245185621 -0.00012498140684800033
 H  -0.4132209552654213 1.1563084463839566 -0.00013107588540309755
 C  2.5254483394793246 -0.05107583301235708 7.718603573534984e-05
 C  3.734396071219603 -0.11554421445502498 0.00010178570486026719
 H  4.798069550547278 -0.16830371571787794 0.0001228691589945882
