12
 generated by VMD
 C        -2.721490        0.069464       -0.000016
 O        -2.068356        1.102579       -0.000148
 O        -2.246833       -1.152959        0.000160
 H        -3.812450        0.078665       -0.000035
 H        -0.746577       -1.072129        0.000171
 C         1.062929       -0.024515        0.000058
 O         0.407291       -1.060878        0.000190
 O         0.570194        1.194110       -0.000118
 H        -0.925624        1.155424       -0.000126
 C         2.510505       -0.049005        0.000085
 C         3.722363       -0.113015        0.000113
 H         4.782938       -0.164817        0.000137
